Program Version,EnergyPlus, Version 25.2.0-cf7368216c, YMD=2026.03.09 10:07,
   ** Warning ** ProcessScheduleInput: Schedule:Compact = OCCRPY-ROOM1
   **   ~~~   ** has missing day types in Through=12/31
   **   ~~~   ** Last "For" field=FOR: WEEKENDS HOLIDAY SUMMERDESIGNDAY WINTERDESIGNDAY CRSTOMDAY1 CRSTOMDAY2
   **   ~~~   ** Missing day types= "CustomDay1", "CustomDay2"
   **   ~~~   ** Missing day types will have 0.0 as Schedule Values
   ** Warning ** ProcessScheduleInput: Schedule:Compact = LIGHTS-1
   **   ~~~   ** has missing day types in Through=12/31
   **   ~~~   ** Last "For" field=FOR: WEEKENDS HOLIDAY SUMMERDESIGNDAY WINTERDESIGNDAY CRSTOMDAY1 CRSTOMDAY2
   **   ~~~   ** Missing day types= "CustomDay1", "CustomDay2"
   **   ~~~   ** Missing day types will have 0.0 as Schedule Values
   ** Warning ** ProcessScheduleInput: Schedule:Compact = INFIL-SCH1
   **   ~~~   ** has missing day types in Through=12/31
   **   ~~~   ** Last "For" field=FOR: WEEKENDS HOLIDAY SUMMERDESIGNDAY WINTERDESIGNDAY CRSTOMDAY1 CRSTOMDAY2
   **   ~~~   ** Missing day types= "CustomDay1", "CustomDay2"
   **   ~~~   ** Missing day types will have 0.0 as Schedule Values
   ** Warning ** ProcessScheduleInput: Schedule:Compact = VENT-SCH1
   **   ~~~   ** has missing day types in Through=12/31
   **   ~~~   ** Last "For" field=FOR: WEEKENDS HOLIDAY SUMMERDESIGNDAY WINTERDESIGNDAY CRSTOMDAY1 CRSTOMDAY2
   **   ~~~   ** Missing day types= "CustomDay1", "CustomDay2"
   **   ~~~   ** Missing day types will have 0.0 as Schedule Values
   ** Warning ** ProcessScheduleInput: Schedule:Compact = ACTSCHD1
   **   ~~~   ** has missing day types in Through=12/31
   **   ~~~   ** Last "For" field=FOR: WEEKENDS HOLIDAY SUMMERDESIGNDAY WINTERDESIGNDAY CRSTOMDAY1 CRSTOMDAY2
   **   ~~~   ** Missing day types= "CustomDay1", "CustomDay2"
   **   ~~~   ** Missing day types will have 0.0 as Schedule Values
   ** Warning ** ProcessScheduleInput: Schedule:Compact = OCCRPY-ROOM2
   **   ~~~   ** has missing day types in Through=12/31
   **   ~~~   ** Last "For" field=FOR: WEEKENDS HOLIDAY SUMMERDESIGNDAY WINTERDESIGNDAY CRSTOMDAY1 CRSTOMDAY2
   **   ~~~   ** Missing day types= "CustomDay1", "CustomDay2"
   **   ~~~   ** Missing day types will have 0.0 as Schedule Values
   ** Warning ** ProcessScheduleInput: Schedule:Compact = LIGHTS-2
   **   ~~~   ** has missing day types in Through=12/31
   **   ~~~   ** Last "For" field=FOR: WEEKENDS HOLIDAY SUMMERDESIGNDAY WINTERDESIGNDAY CRSTOMDAY1 CRSTOMDAY2
   **   ~~~   ** Missing day types= "CustomDay1", "CustomDay2"
   **   ~~~   ** Missing day types will have 0.0 as Schedule Values
   ** Warning ** ProcessScheduleInput: Schedule:Compact = INFIL-SCH2
   **   ~~~   ** has missing day types in Through=12/31
   **   ~~~   ** Last "For" field=FOR: WEEKENDS HOLIDAY SUMMERDESIGNDAY WINTERDESIGNDAY CRSTOMDAY1 CRSTOMDAY2
   **   ~~~   ** Missing day types= "CustomDay1", "CustomDay2"
   **   ~~~   ** Missing day types will have 0.0 as Schedule Values
   ** Warning ** ProcessScheduleInput: Schedule:Compact = VENT-SCH2
   **   ~~~   ** has missing day types in Through=12/31
   **   ~~~   ** Last "For" field=FOR: WEEKENDS HOLIDAY SUMMERDESIGNDAY WINTERDESIGNDAY CRSTOMDAY1 CRSTOMDAY2
   **   ~~~   ** Missing day types= "CustomDay1", "CustomDay2"
   **   ~~~   ** Missing day types will have 0.0 as Schedule Values
   ** Warning ** ProcessScheduleInput: Schedule:Compact = ACTSCHD2
   **   ~~~   ** has missing day types in Through=12/31
   **   ~~~   ** Last "For" field=FOR: WEEKENDS HOLIDAY SUMMERDESIGNDAY WINTERDESIGNDAY CRSTOMDAY1 CRSTOMDAY2
   **   ~~~   ** Missing day types= "CustomDay1", "CustomDay2"
   **   ~~~   ** Missing day types will have 0.0 as Schedule Values
   ** Warning ** ProcessScheduleInput: Schedule:Compact = HEAT-AVAIL
   **   ~~~   ** has missing day types in Through=12/31
   **   ~~~   ** Last "For" field=FOR: WEEKENDS HOLIDAY SUMMERDESIGNDAY WINTERDESIGNDAY CRSTOMDAY1 CRSTOMDAY2
   **   ~~~   ** Missing day types= "CustomDay1", "CustomDay2"
   **   ~~~   ** Missing day types will have 0.0 as Schedule Values
   ** Warning ** ProcessScheduleInput: Schedule:Compact = HVAC-AVAIL
   **   ~~~   ** has missing day types in Through=12/31
   **   ~~~   ** Last "For" field=FOR: WEEKENDS HOLIDAY SUMMERDESIGNDAY WINTERDESIGNDAY CRSTOMDAY1 CRSTOMDAY2
   **   ~~~   ** Missing day types= "CustomDay1", "CustomDay2"
   **   ~~~   ** Missing day types will have 0.0 as Schedule Values
   ** Warning ** ProcessScheduleInput: Schedule:Compact = ZONE CONTROL TYPE SCHED1
   **   ~~~   ** has missing day types in Through=12/31
   **   ~~~   ** Last "For" field=FOR: WEEKENDS HOLIDAY CRSTOMDAY1 CRSTOMDAY2
   **   ~~~   ** Missing day types= "CustomDay1", "CustomDay2"
   **   ~~~   ** Missing day types will have 0.0 as Schedule Values
   ** Warning ** ProcessScheduleInput: Schedule:Compact = ZONE CONTROL TYPE SCHED2
   **   ~~~   ** has missing day types in Through=12/31
   **   ~~~   ** Last "For" field=FOR: WEEKENDS HOLIDAY CRSTOMDAY1 CRSTOMDAY2
   **   ~~~   ** Missing day types= "CustomDay1", "CustomDay2"
   **   ~~~   ** Missing day types will have 0.0 as Schedule Values
   ** Warning ** ProcessScheduleInput: Schedule:Compact = HTG-SETP-SCH
   **   ~~~   ** has missing day types in Through=12/31
   **   ~~~   ** Last "For" field=FOR: WEEKENDS HOLIDAY SUMMERDESIGNDAY WINTERDESIGNDAY CRSTOMDAY1 CRSTOMDAY2
   **   ~~~   ** Missing day types= "CustomDay1", "CustomDay2"
   **   ~~~   ** Missing day types will have 0.0 as Schedule Values
   ** Warning ** ProcessScheduleInput: Schedule:Compact = CLG-SETP-SCH
   **   ~~~   ** has missing day types in Through=12/31
   **   ~~~   ** Last "For" field=FOR: WEEKENDS HOLIDAY SUMMERDESIGNDAY WINTERDESIGNDAY CRSTOMDAY1 CRSTOMDAY2
   **   ~~~   ** Missing day types= "CustomDay1", "CustomDay2"
   **   ~~~   ** Missing day types will have 0.0 as Schedule Values
   ************* Beginning Zone Sizing Calculations
   ** Warning ** GetHTSurfaceData: Surfaces with interface to Ground found but no "Ground Temperatures" were input.
   **   ~~~   ** Found first in surface=CL_FLOOR
   **   ~~~   ** Defaults, constant throughout the year of (18.0) will be used.
   ** Warning ** GetVertices: Floor is upside down! Tilt angle=[0.0], should be near 180, Surface="CL_FLOOR", in Zone="CLASSROOM_LEFT".
   **   ~~~   ** Automatic fix is attempted.
   ** Warning ** GetVertices: Roof/Ceiling is upside down! Tilt angle=[180.0], should be near 0, Surface="CR_ROOF", in Zone="CLASSROOM_RIGHT".
   **   ~~~   ** Automatic fix is attempted.
   ** Warning ** GetVertices: Roof/Ceiling is upside down! Tilt angle=[171.1], should be near 0, Surface="H3_ROOF", in Zone="HALLWAY_ROOM3".
   **   ~~~   ** Automatic fix is attempted.
   ** Warning ** GetVertices: Floor is upside down! Tilt angle=[0.0], should be near 180, Surface="R2_FLOOR", in Zone="ROOM2_SMALL".
   **   ~~~   ** Automatic fix is attempted.
   ** Warning ** BuildingSurface:Detailed="R2_WALL_SOUTH", Sun Exposure="SUNEXPOSED".
   **   ~~~   ** ..This surface is not exposed to External Environment.  Sun exposure has no effect.
   ** Warning ** FenestrationSurface:Detailed="CL_NORTH_WINDOW_2", invalid Frame and Divider Name="FRAME_ALUMINUM".
   **   ~~~   ** .. because it is a triangular window and cannot have a frame or divider or reveal reflection.
   **   ~~~   ** Frame, divider and reveal reflection will be ignored for this window.
   ** Warning ** checkSubSurfAzTiltNorm: Some Outward Facing angles of subsurfaces differ more than 30.0 degrees from base surface.
   **   ~~~   ** ...use Output:Diagnostics,DisplayExtraWarnings; to show more details on individual surfaces.
   ** Warning ** GetSurfaceData: InterZone Surface Areas do not match as expected and might not satisfy conservation of energy:
   **   ~~~   ** ...use Output:Diagnostics,DisplayExtraWarnings; to show more details on individual mismatches.
   ** Warning ** GetSurfaceData: InterZone Surface Azimuths do not match as expected.
   **   ~~~   **   Azimuth=180.0, Tilt=90.0, in Surface=H3_WALL_NORTH_1, Zone=HALLWAY_ROOM3
   **   ~~~   **   Azimuth=180.0, Tilt=90.0, in Surface=R2_WALL_SOUTH, Zone=ROOM2_SMALL
   **   ~~~   ** ..surface class of first surface=Wall
   **   ~~~   ** ..surface class of second surface=Wall
   ** Warning ** GetSurfaceData: Interzone surfaces cannot be "WindExposed" -- removing WindExposed
   **   ~~~   **   Surface=H3_WALL_NORTH_1, Zone=HALLWAY_ROOM3
   **   ~~~   **   Surface=R2_WALL_SOUTH, Zone=ROOM2_SMALL
   ** Warning ** GetSurfaceData: InterZone Surface Azimuths do not match as expected.
   **   ~~~   **   Azimuth=180.0, Tilt=90.0, in Surface=DOOR_H3_TO_R2, Zone=HALLWAY_ROOM3
   **   ~~~   **   Azimuth=180.0, Tilt=90.0, in Surface=DOOR_R2_TO_H3, Zone=ROOM2_SMALL
   **   ~~~   ** ..surface class of first surface=Door
   **   ~~~   ** ..surface class of second surface=Door
   ** Warning ** GetSurfaceData: Interzone surfaces cannot be "WindExposed" -- removing WindExposed
   **   ~~~   **   Surface=DOOR_H3_TO_R2, Zone=HALLWAY_ROOM3
   **   ~~~   **   Surface=DOOR_R2_TO_H3, Zone=ROOM2_SMALL
   ** Warning ** GetSurfaceData: There are 3 coincident/collinear vertices; These have been deleted unless the deletion would bring the number of surface sides < 3.
   **   ~~~   ** For explicit details on each problem surface, use Output:Diagnostics,DisplayExtraWarnings;
   ** Severe  ** ProcessSurfaceVertices: Suspected non-planar surface:"H3_ROOF", Max "out of line"=0.45335 at Vertex # 2
   ** Warning ** CalculateZoneVolume: 1 zone is not fully enclosed. For more details use:  Output:Diagnostics,DisplayExtrawarnings; 
   ** Warning ** CheckUsedConstructions: There are 1 nominally unused constructions in input.
   **   ~~~   ** For explicit details on each unused construction, use Output:Diagnostics,DisplayExtraWarnings;
   ** Warning ** GetInternalHeatGains: People = CLASSROOM_LEFT PEOPLE
   **   ~~~   ** Activity Level Schedule Name = ACTSCHD1, schedule contains values that are < 70 and/or > 1000
   **   ~~~   ** Values fall outside of typical w/person range for thermal comfort reporting.
   ** Warning ** GetInternalHeatGains: People = CLASSROOM_RIGHT PEOPLE
   **   ~~~   ** Activity Level Schedule Name = ACTSCHD1, schedule contains values that are < 70 and/or > 1000
   **   ~~~   ** Values fall outside of typical w/person range for thermal comfort reporting.
   ** Warning ** GetInternalHeatGains: People = ROOM2_SMALL PEOPLE
   **   ~~~   ** Activity Level Schedule Name = ACTSCHD1, schedule contains values that are < 70 and/or > 1000
   **   ~~~   ** Values fall outside of typical w/person range for thermal comfort reporting.
   ** Warning ** GetInternalHeatGains: People = HALLWAY_ROOM3 PEOPLE
   **   ~~~   ** Activity Level Schedule Name = ACTSCHD2, schedule contains values that are < 70 and/or > 1000
   **   ~~~   ** Values fall outside of typical w/person range for thermal comfort reporting.
   ** Warning ** GetSimpleAirModelInputs: ZoneVentilation:DesignFlowRate="VENT_CLASSROOM_LEFT", in Zone or ZoneList or Space or SpaceList Name="CLASSROOM_LEFT".
   **   ~~~   ** Ventilation Coefficients are all zero.  No Ventilation will be reported.
   ** Warning ** GetSimpleAirModelInputs: ZoneVentilation:DesignFlowRate="VENT_CLASSROOM_RIGHT", in Zone or ZoneList or Space or SpaceList Name="CLASSROOM_RIGHT".
   **   ~~~   ** Ventilation Coefficients are all zero.  No Ventilation will be reported.
   ** Warning ** GetSimpleAirModelInputs: ZoneVentilation:DesignFlowRate="VENT_ROOM2_SMALL", in Zone or ZoneList or Space or SpaceList Name="ROOM2_SMALL".
   **   ~~~   ** Ventilation Coefficients are all zero.  No Ventilation will be reported.
   ** Warning ** GetSimpleAirModelInputs: ZoneVentilation:DesignFlowRate="VENT_HALLWAY_ROOM3", in Zone or ZoneList or Space or SpaceList Name="HALLWAY_ROOM3".
   **   ~~~   ** Ventilation Coefficients are all zero.  No Ventilation will be reported.
   ** Warning ** Calculated design cooling load for zone=CLASSROOM_LEFT is zero.
   **   ~~~   ** Check Sizing:Zone and ZoneControl:Thermostat inputs.
   ** Warning ** Calculated design cooling load for zone=CLASSROOM_RIGHT is zero.
   **   ~~~   ** Check Sizing:Zone and ZoneControl:Thermostat inputs.
   ** Warning ** Calculated design cooling load for zone=ROOM2_SMALL is zero.
   **   ~~~   ** Check Sizing:Zone and ZoneControl:Thermostat inputs.
   ************* Beginning System Sizing Calculations
   ** Warning ** The Standard Ratings is calculated for Coil:Cooling:DX:SingleSpeed = HAIER_CAB_DX_COOL but not at the AHRI test condition due to curve out of bound.
   **   ~~~   **  Review the Standard Ratings calculations in the Engineering Reference for this coil type. Also, use Output:Diagnostics, DisplayExtraWarnings for further guidance.
   ** Warning ** Output:Meter: invalid Key Name="GAS:FACILITY" - not found.
   ** Warning ** Output:Meter: invalid Key Name="CO2:FACILITY" - not found.
   ** Warning ** Output:Meter: invalid Key Name="DIESELEMISSIONS:CO2" - not found.
   ** Warning ** Output:Meter: invalid Key Name="ELECTRICITYEMISSIONS:CO2" - not found.
   ** Warning ** GetPollutionFactorInput: Requested reporting for Carbon Equivalent Pollution, but insufficient information is entered.
   **   ~~~   ** Both "FuelFactors" and "EnvironmentalImpactFactors" must be entered or the displayed carbon pollution will all be zero.
   ************* Testing Individual Branch Integrity
   ************* All Branches passed integrity testing
   ************* Testing Individual Supply Air Path Integrity
   ************* All Supply Air Paths passed integrity testing
   ************* Testing Individual Return Air Path Integrity
   ************* All Return Air Paths passed integrity testing
   ************* No node connection errors were found.
   ************* Beginning Simulation
   ** Warning ** SimHVAC: Maximum iterations (20) exceeded for all HVAC loops, at RUNPERIOD1, 01/07 08:00 - 08:10
   **   ~~~   ** The solution for zone HVAC equipment did not appear to converge
   **   ~~~   ** ...use Output:Diagnostics,DisplayExtraWarnings; to show more details on each max iteration exceeded.
   ** Warning ** SimHVAC: Maximum iterations (20) exceeded for all HVAC loops, at RUNPERIOD1, 01/07 08:00 - 08:10
   **   ~~~   ** The solution for zone HVAC equipment did not appear to converge
   ** Warning ** SimHVAC: Maximum iterations (20) exceeded for all HVAC loops, at RUNPERIOD1, 01/07 08:01 - 08:02
   **   ~~~   ** The solution for zone HVAC equipment did not appear to converge
   ** Warning ** SimHVAC: Maximum iterations (20) exceeded for all HVAC loops, at RUNPERIOD1, 01/07 08:04 - 08:05
   **   ~~~   ** The solution for zone HVAC equipment did not appear to converge
   ** Warning ** SimHVAC: Maximum iterations (20) exceeded for all HVAC loops, at RUNPERIOD1, 01/07 08:05 - 08:06
   **   ~~~   ** The solution for zone HVAC equipment did not appear to converge
   ** Warning ** SimHVAC: Maximum iterations (20) exceeded for all HVAC loops, at RUNPERIOD1, 01/07 08:08 - 08:09
   **   ~~~   ** The solution for zone HVAC equipment did not appear to converge
   ** Warning ** SimHVAC: Maximum iterations (20) exceeded for all HVAC loops, at RUNPERIOD1, 01/07 08:10 - 08:20
   **   ~~~   ** The solution for zone HVAC equipment did not appear to converge
   ** Warning ** SimHVAC: Maximum iterations (20) exceeded for all HVAC loops, at RUNPERIOD1, 01/07 08:10 - 08:20
   **   ~~~   ** The solution for zone HVAC equipment did not appear to converge
   ** Warning ** SimHVAC: Maximum iterations (20) exceeded for all HVAC loops, at RUNPERIOD1, 01/07 08:11 - 08:12
   **   ~~~   ** The solution for zone HVAC equipment did not appear to converge
   ** Warning ** SimHVAC: Maximum iterations (20) exceeded for all HVAC loops, at RUNPERIOD1, 01/07 08:12 - 08:13
   **   ~~~   ** The solution for zone HVAC equipment did not appear to converge
   ** Warning ** SimHVAC: Maximum iterations (20) exceeded for all HVAC loops, at RUNPERIOD1, 01/07 08:14 - 08:15
   **   ~~~   ** The solution for zone HVAC equipment did not appear to converge
   ** Warning ** SimHVAC: Maximum iterations (20) exceeded for all HVAC loops, at RUNPERIOD1, 01/07 08:16 - 08:17
   **   ~~~   ** The solution for zone HVAC equipment did not appear to converge
   ** Warning ** SimHVAC: Maximum iterations (20) exceeded for all HVAC loops, at RUNPERIOD1, 01/07 08:17 - 08:18
   **   ~~~   ** The solution for zone HVAC equipment did not appear to converge
   ** Warning ** SimHVAC: Maximum iterations (20) exceeded for all HVAC loops, at RUNPERIOD1, 01/07 08:19 - 08:20
   **   ~~~   ** The solution for zone HVAC equipment did not appear to converge
   ************* Simulation Error Summary *************
   ** Warning ** The following Report Variables were requested but not generated -- check.rdd file
   **   ~~~   ** Either the IDF did not contain these elements, the variable name is misspelled,
   **   ~~~   ** or the requested variable is an advanced output which requires Output : Diagnostics, DisplayAdvancedReportVariables;
   ************* Key=Classroom_Left, VarName=ZONE GENERIC AIR CONTAMINANT CONCENTRATION, Frequency=TimeStep
   ************* Key=Classroom_Left, VarName=ZONE INFILTRATION AIR CHANGE RATE, Frequency=TimeStep
   ************* Key=Classroom_Left, VarName=ZONE INFILTRATION VOLUME FLOW RATE, Frequency=TimeStep
   ************* Key=Classroom_Left, VarName=ZONE PEOPLE OCCRPANT COUNT, Frequency=TimeStep
   ************* Key=Classroom_Left, VarName=ZONE ELECTRIC EQUIPMENT TOTAL HEATING RATE, Frequency=TimeStep
   ************* Key=Classroom_Left, VarName=DAYLIGHTING REFERENCE POINT ILLUMINANCE, Frequency=Hourly
   ************* Key=Classroom_Left, VarName=LIGHTS ELECTRIC POWER, Frequency=Hourly
   ************* Key=Classroom_Right, VarName=ZONE GENERIC AIR CONTAMINANT CONCENTRATION, Frequency=TimeStep
   ************* Key=Classroom_Right, VarName=ZONE INFILTRATION AIR CHANGE RATE, Frequency=TimeStep
   ************* Key=Classroom_Right, VarName=ZONE INFILTRATION VOLUME FLOW RATE, Frequency=TimeStep
   ************* Key=Classroom_Right, VarName=ZONE PEOPLE OCCRPANT COUNT, Frequency=TimeStep
   ************* Key=Classroom_Right, VarName=ZONE ELECTRIC EQUIPMENT TOTAL HEATING RATE, Frequency=TimeStep
   ************* Key=Classroom_Right, VarName=DAYLIGHTING REFERENCE POINT ILLUMINANCE, Frequency=Hourly
   ************* Key=Classroom_Right, VarName=LIGHTS ELECTRIC POWER, Frequency=Hourly
   ************* Key=Hallway_Room3, VarName=ZONE GENERIC AIR CONTAMINANT CONCENTRATION, Frequency=TimeStep
   ************* Key=Hallway_Room3, VarName=ZONE INFILTRATION AIR CHANGE RATE, Frequency=TimeStep
   ************* Key=Hallway_Room3, VarName=ZONE INFILTRATION VOLUME FLOW RATE, Frequency=TimeStep
   ************* Key=Hallway_Room3, VarName=ZONE PEOPLE OCCRPANT COUNT, Frequency=TimeStep
   ************* Key=Hallway_Room3, VarName=ZONE ELECTRIC EQUIPMENT TOTAL HEATING RATE, Frequency=TimeStep
   ************* Key=Hallway_Room3, VarName=DAYLIGHTING REFERENCE POINT ILLUMINANCE, Frequency=Hourly
   ************* Key=Hallway_Room3, VarName=LIGHTS ELECTRIC POWER, Frequency=Hourly
   ************* Key=Room2_Small, VarName=ZONE GENERIC AIR CONTAMINANT CONCENTRATION, Frequency=TimeStep
   ************* Key=Room2_Small, VarName=ZONE INFILTRATION AIR CHANGE RATE, Frequency=TimeStep
   ************* Key=Room2_Small, VarName=ZONE INFILTRATION VOLUME FLOW RATE, Frequency=TimeStep
   ************* Key=Room2_Small, VarName=ZONE PEOPLE OCCRPANT COUNT, Frequency=TimeStep
   ************* Key=Room2_Small, VarName=DAYLIGHTING REFERENCE POINT ILLUMINANCE, Frequency=Hourly
   ************* Key=Room2_Small, VarName=LIGHTS ELECTRIC POWER, Frequency=Hourly
   ************* There are 1 unused schedules in input.
   ************* Use Output:Diagnostics,DisplayUnusedSchedules; to see them.
   *************
   ************* ===== Recurring Surface Error Summary =====
   ************* The following surface error messages occurred.
   *************
   ************* Base Surface does not surround subsurface errors occurring...
   ************* Check that the GlobalGeometryRules object is expressing the proper starting corner and direction [CounterClockwise/Clockwise]
   *************
   ** Warning ** Base surface does not surround subsurface (CHKSBS), Overlap Status=Partial-Overlap
   **   ~~~   **   The base surround errors occurred 1 times.
   **   ~~~   ** Surface "H3_WALL_SOUTH" overlaps SubSurface "DOOR_H3_SOUTH"
   *************
   **   ~~~   **   The base surround errors occurred 1 times (total).
   *************
   *************
   ************* ===== Recurring Error Summary =====
   ************* The following recurring error messages occurred.
   *************
   *************  ** Warning ** SimHVAC: Exceeding Maximum iterations for all HVAC loops, during RUNPERIOD1 continues
   *************  **   ~~~   **   This error occurred 5031 total times;
   *************  **   ~~~   **   during Warmup 0 times;
   *************  **   ~~~   **   during Sizing 0 times.
   *************
   *************  ** Warning ** Plant loop exceeding upper temperature limit, PlantLoop="HW-LOOP"
   *************  **   ~~~   **   This error occurred 109 total times;
   *************  **   ~~~   **   during Warmup 0 times;
   *************  **   ~~~   **   during Sizing 0 times.
   *************  **   ~~~   **   Max=99.954062
   *************
   *************
   ************* ===== Final Error Summary =====
   ************* The following error categories occurred.  Consider correcting or noting.
   ************* InterZone Surface Areas -- mismatch
   ************* ..Area mismatch errors happen when the interzone surface in zone A is
   ************* ..not the same size as it's companion in zone B.
   ************* InterZone Surface Azimuths -- mismatch
   ************* ..The azimuths (outward facing angle) of two interzone surfaces should not be the same.
   ************* ..Normally, the absolute difference between the two azimuths will be 180 degrees.
   ************* ..You can turn on the report: Output:Surfaces:List,Details; to inspect your surfaces.
   ************* Likely non-planar surfaces
   ************* ..EnergyPlus Surfaces should be planar. If the error indicates a small increment for the
   ************* ..out of planar bounds, then the calculations are likely okay though you should try to fix
   ************* ..the problem. If a greater increment, the calculations will likely be incorrect.
   ************* Nominally Unused Constructions
   ************* ..The nominally unused constructions warning is provided to alert you to potential conditions that can cause
   ************* ..extra time during simulation. Each construction is calculated by the algorithm indicated in the HeatBalanceAlgorithm
   ************* ..object. You may remove the constructions indicated (when you use the DisplayExtraWarnings option).
   *************
   ************* EnergyPlus Warmup Error Summary. During Warmup: 0 Warning; 0 Severe Errors.
   ************* EnergyPlus Sizing Error Summary. During Sizing: 26 Warning; 1 Severe Errors.
   ************* EnergyPlus Completed Successfully-- 5206 Warning; 1 Severe Errors; Elapsed Time=00hr 00min  3.90sec
