  0
SECTION
  2
ENTITIES
999
DXF created from EnergyPlus
999
Program Version,EnergyPlus, Version 25.2.0-cf7368216c, YMD=2026.03.09 10:30
999
Polygon Action,TRIANGULATE3DFACE
999
Color Scheme,Default
999
Text - True North
  0
TEXT
  8
1
  6
Continuous
 62
  3
 10
      -11.00000
 20
        3.00000
 30
        0.10000
 40
 .25
  1
True North
 41
 0.0
  7
MONOTXT
210
0.0
220
0.0
230
1.0
999
Text - Building Title
  0
TEXT
  8
1
  6
Continuous
 62
  3
 10
      -14.00000
 20
       -1.00000
 30
        0.10000
 40
 .4
  1
Building - 23
 41
 0.0
  7
MONOTXT
210
0.0
220
0.0
230
1.0
999
North Arrow Stem
  0
3DFACE
  8
1
 62
  3
 10
      -10.00000
 20
        3.00000
 30
        0.10000
 11
      -10.00000
 21
        3.00000
 31
        0.00000
 12
      -10.00000
 22
        0.00000
 32
        0.00000
 13
      -10.00000
 23
        0.00000
 33
        0.10000
999
North Arrow Head 1
  0
3DFACE
  8
1
 62
  3
 10
      -10.00000
 20
        3.00000
 30
        0.10000
 11
      -10.00000
 21
        3.00000
 31
        0.00000
 12
      -10.50000
 22
        2.13397
 32
        0.00000
 13
      -10.50000
 23
        2.13397
 33
        0.10000
999
North Arrow Head 2
  0
3DFACE
  8
1
 62
  3
 10
      -10.00000
 20
        3.00000
 30
        0.10000
 11
      -10.00000
 21
        3.00000
 31
        0.00000
 12
       -9.50000
 22
        2.13397
 32
        0.00000
 13
       -9.50000
 23
        2.13397
 33
        0.10000
999
North Arrow Side 1
  0
3DFACE
  8
1
 62
  3
 10
      -10.50000
 20
        4.50000
 30
        0.10000
 11
      -10.50000
 21
        4.50000
 31
        0.00000
 12
      -10.50000
 22
        3.50000
 32
        0.00000
 13
      -10.50000
 23
        3.50000
 33
        0.10000
999
North Arrow Side 2
  0
3DFACE
  8
1
 62
  3
 10
      -10.50000
 20
        4.50000
 30
        0.10000
 11
      -10.50000
 21
        4.50000
 31
        0.00000
 12
       -9.50000
 22
        3.50000
 32
        0.00000
 13
       -9.50000
 23
        3.50000
 33
        0.10000
999
North Arrow Side 3
  0
3DFACE
  8
1
 62
  3
 10
       -9.50000
 20
        4.50000
 30
        0.10000
 11
       -9.50000
 21
        4.50000
 31
        0.00000
 12
       -9.50000
 22
        3.50000
 32
        0.00000
 13
       -9.50000
 23
        3.50000
 33
        0.10000
999
Zone Names
999
Zone=1:CLASSROOM_LEFT
999
Zone=2:CLASSROOM_RIGHT
999
Zone=3:HALLWAY_ROOM3
999
Zone=4:ROOM2_SMALL
999
CLASSROOM_LEFT:CL_WALL_WEST_1
  0
3DFACE
  8
CLASSROOM_LEFT
 62
 43
 10
        0.00000
 20
        1.50000
 30
        3.00000
 11
        0.00000
 21
        0.00000
 31
        3.00000
 12
        0.00000
 22
        0.00000
 32
        0.00000
 13
        0.00000
 23
        1.50000
 33
        0.00000
999
CLASSROOM_LEFT:CL_WALL_WEST_2
  0
3DFACE
  8
CLASSROOM_LEFT
 62
 43
 10
        0.00000
 20
        5.17000
 30
        3.00000
 11
        0.00000
 21
        1.50000
 31
        3.00000
 12
        0.00000
 22
        1.50000
 32
        0.00000
 13
        0.00000
 23
        5.17000
 33
        0.00000
999
CLASSROOM_LEFT:CL_WALL_WEST_3
  0
3DFACE
  8
CLASSROOM_LEFT
 62
 43
 10
        0.00000
 20
        6.67000
 30
        3.00000
 11
        0.00000
 21
        5.17000
 31
        3.00000
 12
        0.00000
 22
        5.17000
 32
        0.00000
 13
        0.00000
 23
        6.67000
 33
        0.00000
999
CLASSROOM_LEFT:CL_WALL_SOUTH
  0
3DFACE
  8
CLASSROOM_LEFT
 62
 43
 10
        6.69000
 20
        0.00000
 30
        3.00000
 11
        0.00000
 21
        0.00000
 31
        3.00000
 12
        0.00000
 22
        0.00000
 32
        0.00000
 13
        6.69000
 23
        0.00000
 33
        0.00000
999
CLASSROOM_LEFT:CL_SOUTH_WINDOW_1
  0
3DFACE
  8
CLASSROOM_LEFT
 62
143
 10
        2.20000
 20
        0.00000
 30
        1.40000
 11
        3.00000
 21
        0.00000
 31
        1.40000
 12
        3.00000
 22
        0.00000
 32
        2.30000
 13
        2.20000
 23
        0.00000
 33
        2.30000
999
CLASSROOM_LEFT:CL_SOUTH_WINDOW_2
  0
3DFACE
  8
CLASSROOM_LEFT
 62
143
 10
        5.00000
 20
        0.00000
 30
        1.40000
 11
        5.80000
 21
        0.00000
 31
        1.40000
 12
        5.80000
 22
        0.00000
 32
        2.30000
 13
        5.00000
 23
        0.00000
 33
        2.30000
999
CLASSROOM_LEFT:CL_WALL_NORTH
  0
3DFACE
  8
CLASSROOM_LEFT
 62
 43
 10
        6.69000
 20
        6.67000
 30
        3.00000
 11
        0.00000
 21
        6.67000
 31
        3.00000
 12
        0.00000
 22
        6.67000
 32
        0.00000
 13
        6.69000
 23
        6.67000
 33
        0.00000
999
CLASSROOM_LEFT:CL_NORTH_WINDOW_1
  0
3DFACE
  8
CLASSROOM_LEFT
 62
143
 10
        1.00000
 20
        6.67000
 30
        0.70000
 11
        2.50000
 21
        6.67000
 31
        0.70000
 12
        2.50000
 22
        6.67000
 32
        2.30000
 13
        1.00000
 23
        6.67000
 33
        2.30000
999
CLASSROOM_LEFT:CL_NORTH_WINDOW_2
  0
3DFACE
  8
CLASSROOM_LEFT
 62
143
 10
        5.69000
 20
        6.67000
 30
        2.30000
 11
        4.19000
 21
        6.67000
 31
        0.70000
 12
        5.69000
 22
        7.67000
 32
        2.30000
 13
        5.69000
 23
        7.67000
 33
        2.30000
999
CLASSROOM_LEFT:CL_WALL_EAST_1
  0
3DFACE
  8
CLASSROOM_LEFT
 62
 43
 10
        6.69000
 20
        6.67000
 30
        3.00000
 11
        6.69000
 21
        3.09000
 31
        3.00000
 12
        6.69000
 22
        3.09000
 32
        0.00000
 13
        6.69000
 23
        6.67000
 33
        0.00000
999
CLASSROOM_LEFT:CL_WALL_EAST_2
  0
3DFACE
  8
CLASSROOM_LEFT
 62
 43
 10
        6.69000
 20
        3.09000
 30
        3.00000
 11
        6.69000
 21
        0.00000
 31
        3.00000
 12
        6.69000
 22
        0.00000
 32
        0.00000
 13
        6.69000
 23
        3.09000
 33
        0.00000
999
CLASSROOM_LEFT:DOOR_CL_TO_H3
  0
3DFACE
  8
CLASSROOM_LEFT
 62
 45
 10
        6.69000
 20
        0.90000
 30
        0.00000
 11
        6.69000
 21
        1.80000
 31
        0.00000
 12
        6.69000
 22
        1.80000
 32
        2.15000
 13
        6.69000
 23
        0.90000
 33
        2.15000
999
CLASSROOM_LEFT:CL_FLOOR
  0
3DFACE
  8
CLASSROOM_LEFT
 62
  8
 10
        6.69000
 20
        6.67000
 30
        0.00000
 11
        6.69000
 21
        0.00000
 31
        0.00000
 12
        0.00000
 22
        0.00000
 32
        0.00000
 13
        0.00000
 23
        6.67000
 33
        0.00000
999
CLASSROOM_LEFT:CL_ROOF
  0
3DFACE
  8
CLASSROOM_LEFT
 62
 15
 10
        0.00000
 20
        6.67000
 30
        3.00000
 11
        0.00000
 21
        0.00000
 31
        3.00000
 12
        6.69000
 22
        0.00000
 32
        3.00000
 13
        6.69000
 23
        6.67000
 33
        3.00000
999
CLASSROOM_RIGHT:CR_WALL_WEST_1
  0
3DFACE
  8
CLASSROOM_RIGHT
 62
 43
 10
       13.30000
 20
        2.98000
 30
        3.00000
 11
       13.30000
 21
        0.00000
 31
        3.00000
 12
       13.30000
 22
        0.00000
 32
        0.00000
 13
       13.30000
 23
        2.98000
 33
        0.00000
999
CLASSROOM_RIGHT:DOOR_CR_TO_H3
  0
3DFACE
  8
CLASSROOM_RIGHT
 62
 45
 10
       13.30000
 20
        1.00000
 30
        0.00000
 11
       13.30000
 21
        2.50000
 31
        0.00000
 12
       13.30000
 22
        2.50000
 32
        2.15000
 13
       13.30000
 23
        1.00000
 33
        2.15000
999
CLASSROOM_RIGHT:CR_WALL_WEST_2
  0
3DFACE
  8
CLASSROOM_RIGHT
 62
 43
 10
       13.30000
 20
        6.67000
 30
        3.00000
 11
       13.30000
 21
        2.98000
 31
        3.00000
 12
       13.30000
 22
        2.98000
 32
        0.00000
 13
       13.30000
 23
        6.67000
 33
        0.00000
999
CLASSROOM_RIGHT:CR_WALL_NORTH
  0
3DFACE
  8
CLASSROOM_RIGHT
 62
 43
 10
       22.77000
 20
        6.67000
 30
        3.00000
 11
       13.30000
 21
        6.67000
 31
        3.00000
 12
       13.30000
 22
        6.67000
 32
        0.00000
 13
       22.77000
 23
        6.67000
 33
        0.00000
999
CLASSROOM_RIGHT:CR_NORTH_WINDOW_1
  0
3DFACE
  8
CLASSROOM_RIGHT
 62
143
 10
       14.00000
 20
        6.67000
 30
        0.70000
 11
       15.50000
 21
        6.67000
 31
        0.70000
 12
       15.50000
 22
        6.67000
 32
        2.30000
 13
       14.00000
 23
        6.67000
 33
        2.30000
999
CLASSROOM_RIGHT:CR_NORTH_WINDOW_2
  0
3DFACE
  8
CLASSROOM_RIGHT
 62
143
 10
       16.50000
 20
        6.67000
 30
        0.70000
 11
       18.00000
 21
        6.67000
 31
        0.70000
 12
       18.00000
 22
        6.67000
 32
        2.30000
 13
       16.50000
 23
        6.67000
 33
        2.30000
999
CLASSROOM_RIGHT:CR_NORTH_WINDOW_3
  0
3DFACE
  8
CLASSROOM_RIGHT
 62
143
 10
       19.00000
 20
        6.67000
 30
        0.70000
 11
       20.50000
 21
        6.67000
 31
        0.70000
 12
       20.50000
 22
        6.67000
 32
        2.30000
 13
       19.00000
 23
        6.67000
 33
        2.30000
999
CLASSROOM_RIGHT:CR_WALL_SOUTH
  0
3DFACE
  8
CLASSROOM_RIGHT
 62
 43
 10
       13.30000
 20
        0.00000
 30
        0.00000
 11
       22.77000
 21
        0.00000
 31
        0.00000
 12
       22.77000
 22
        0.00000
 32
        3.00000
 13
       13.30000
 23
        0.00000
 33
        3.00000
999
CLASSROOM_RIGHT:CR_SOUTH_WINDOW_1
  0
3DFACE
  8
CLASSROOM_RIGHT
 62
143
 10
       14.00000
 20
        0.00000
 30
        1.40000
 11
       14.80000
 21
        0.00000
 31
        1.40000
 12
       14.80000
 22
        0.00000
 32
        2.30000
 13
       14.00000
 23
        0.00000
 33
        2.30000
999
CLASSROOM_RIGHT:CR_SOUTH_WINDOW_2
  0
3DFACE
  8
CLASSROOM_RIGHT
 62
143
 10
       16.00000
 20
        0.00000
 30
        1.40000
 11
       16.80000
 21
        0.00000
 31
        1.40000
 12
       16.80000
 22
        0.00000
 32
        2.30000
 13
       16.00000
 23
        0.00000
 33
        2.30000
999
CLASSROOM_RIGHT:CR_SOUTH_WINDOW_3
  0
3DFACE
  8
CLASSROOM_RIGHT
 62
143
 10
       18.00000
 20
        0.00000
 30
        1.40000
 11
       18.80000
 21
        0.00000
 31
        1.40000
 12
       18.80000
 22
        0.00000
 32
        2.30000
 13
       18.00000
 23
        0.00000
 33
        2.30000
999
CLASSROOM_RIGHT:CR_WALL_EAST
  0
3DFACE
  8
CLASSROOM_RIGHT
 62
 43
 10
       22.77000
 20
        0.00000
 30
        3.00000
 11
       22.77000
 21
        6.67000
 31
        3.00000
 12
       22.77000
 22
        6.67000
 32
        0.00000
 13
       22.77000
 23
        0.00000
 33
        0.00000
999
CLASSROOM_RIGHT:CR_FLOOR
  0
3DFACE
  8
CLASSROOM_RIGHT
 62
  8
 10
       13.30000
 20
        6.67000
 30
        0.00000
 11
       22.77000
 21
        6.67000
 31
        0.00000
 12
       22.77000
 22
        0.00000
 32
        0.00000
 13
       13.30000
 23
        0.00000
 33
        0.00000
999
CLASSROOM_RIGHT:CR_ROOF
  0
3DFACE
  8
CLASSROOM_RIGHT
 62
 15
 10
       13.30000
 20
        0.00000
 30
        3.00000
 11
       22.77000
 21
        0.00000
 31
        3.00000
 12
       22.77000
 22
        6.67000
 32
        3.00000
 13
       13.30000
 23
        6.67000
 33
        3.00000
999
HALLWAY_ROOM3:H3_WALL_WEST
  0
3DFACE
  8
HALLWAY_ROOM3
 62
 43
 10
        6.92000
 20
        3.09000
 30
        0.00000
 11
        6.92000
 21
        0.00000
 31
        0.00000
 12
        6.92000
 22
        0.00000
 32
        3.00000
 13
        6.92000
 23
        3.09000
 33
        3.00000
999
HALLWAY_ROOM3:DOOR_H3_TO_CL
  0
3DFACE
  8
HALLWAY_ROOM3
 62
 45
 10
        6.92000
 20
        0.90000
 30
        2.15000
 11
        6.92000
 21
        1.80000
 31
        2.15000
 12
        6.92000
 22
        1.80000
 32
        0.00000
 13
        6.92000
 23
        0.90000
 33
        0.00000
999
HALLWAY_ROOM3:H3_WALL_SOUTH
  0
3DFACE
  8
HALLWAY_ROOM3
 62
 43
 10
        6.92000
 20
        0.00000
 30
        0.00000
 11
       13.07000
 21
        0.00000
 31
        0.00000
 12
       13.07000
 22
        0.00000
 32
        3.00000
 13
        6.92000
 23
        0.00000
 33
        3.00000
999
HALLWAY_ROOM3:H3_SOUTH_WINDOW
  0
3DFACE
  8
HALLWAY_ROOM3
 62
143
 10
        7.20000
 20
        0.00000
 30
        1.40000
 11
        8.00000
 21
        0.00000
 31
        1.40000
 12
        8.00000
 22
        0.00000
 32
        2.30000
 13
        7.20000
 23
        0.00000
 33
        2.30000
999
HALLWAY_ROOM3:DOOR_H3_SOUTH
  0
3DFACE
  8
HALLWAY_ROOM3
 62
 45
 10
       10.70000
 20
        0.00000
 30
        0.00000
 11
       11.80000
 21
        0.00000
 31
        0.00000
 12
       11.80000
 22
        0.00000
 32
        2.20000
 13
       10.70000
 23
        0.00000
 33
        2.20000
999
HALLWAY_ROOM3:H3_WALL_EAST
  0
3DFACE
  8
HALLWAY_ROOM3
 62
 43
 10
       13.07000
 20
        0.00000
 30
        3.00000
 11
       13.07000
 21
        3.09000
 31
        3.00000
 12
       13.07000
 22
        3.09000
 32
        0.00000
 13
       13.07000
 23
        0.00000
 33
        0.00000
999
HALLWAY_ROOM3:DOOR_H3_TO_CR
  0
3DFACE
  8
HALLWAY_ROOM3
 62
 45
 10
       13.07000
 20
        1.00000
 30
        2.15000
 11
       13.07000
 21
        2.50000
 31
        2.15000
 12
       13.07000
 22
        2.50000
 32
        0.00000
 13
       13.07000
 23
        1.00000
 33
        0.00000
999
HALLWAY_ROOM3:H3_WALL_NORTH_1
  0
3DFACE
  8
HALLWAY_ROOM3
 62
 43
 10
       13.07000
 20
        3.09000
 30
        3.00000
 11
        9.31000
 21
        3.09000
 31
        3.00000
 12
        9.31000
 22
        3.09000
 32
        0.00000
 13
       13.07000
 23
        3.09000
 33
        0.00000
999
HALLWAY_ROOM3:DOOR_H3_TO_R2
  0
3DFACE
  8
HALLWAY_ROOM3
 62
 45
 10
       10.50000
 20
        3.09000
 30
        0.00000
 11
       11.40000
 21
        3.09000
 31
        0.00000
 12
       11.40000
 22
        3.09000
 32
        2.15000
 13
       10.50000
 23
        3.09000
 33
        2.15000
999
HALLWAY_ROOM3:H3_WALL_NORTH_2
  0
3DFACE
  8
HALLWAY_ROOM3
 62
 43
 10
        9.31000
 20
        3.09000
 30
        3.00000
 11
        6.92000
 21
        3.09000
 31
        3.00000
 12
        6.92000
 22
        3.09000
 32
        0.00000
 13
        9.31000
 23
        3.09000
 33
        0.00000
999
HALLWAY_ROOM3:H3_FLOOR
  0
3DFACE
  8
HALLWAY_ROOM3
 62
  8
 10
        6.92000
 20
        3.09000
 30
        0.00000
 11
       13.07000
 21
        3.09000
 31
        0.00000
 12
       13.07000
 22
        0.00000
 32
        0.00000
 13
        6.92000
 23
        0.00000
 33
        0.00000
999
HALLWAY_ROOM3:H3_ROOF
  0
3DFACE
  8
HALLWAY_ROOM3
 62
 15
 10
        0.00000
 20
        0.00000
 30
        0.00000
 11
       13.07000
 21
        0.00000
 31
        3.00000
 12
       13.07000
 22
        3.09000
 32
        3.00000
 13
        6.92000
 23
        3.09000
 33
        3.00000
999
ROOM2_SMALL:R2_WALL_WEST
  0
3DFACE
  8
ROOM2_SMALL
 62
 43
 10
        9.54000
 20
        3.21000
 30
        3.00000
 11
        9.54000
 21
        6.67000
 31
        3.00000
 12
        9.54000
 22
        6.67000
 32
        0.00000
 13
        9.54000
 23
        3.21000
 33
        0.00000
999
ROOM2_SMALL:R2_WALL_SOUTH
  0
3DFACE
  8
ROOM2_SMALL
 62
 43
 10
        9.54000
 20
        3.21000
 30
        3.00000
 11
        9.54000
 21
        3.21000
 31
        0.00000
 12
       13.07000
 22
        3.21000
 32
        0.00000
 13
       13.07000
 23
        3.21000
 33
        3.00000
999
ROOM2_SMALL:DOOR_R2_TO_H3
  0
3DFACE
  8
ROOM2_SMALL
 62
 45
 10
       11.40000
 20
        3.09000
 30
        2.15000
 11
       10.50000
 21
        3.09000
 31
        2.15000
 12
       10.50000
 22
        3.09000
 32
        0.00000
 13
       11.40000
 23
        3.09000
 33
        0.00000
999
ROOM2_SMALL:R2_WALL_EAST
  0
3DFACE
  8
ROOM2_SMALL
 62
 43
 10
       13.07000
 20
        6.67000
 30
        3.00000
 11
       13.07000
 21
        6.67000
 31
        0.00000
 12
       13.07000
 22
        3.21000
 32
        0.00000
 13
       13.07000
 23
        3.21000
 33
        3.00000
999
ROOM2_SMALL:R2_WALL_NORTH
  0
3DFACE
  8
ROOM2_SMALL
 62
 43
 10
       13.07000
 20
        6.67000
 30
        3.00000
 11
        9.54000
 21
        6.67000
 31
        3.00000
 12
        9.54000
 22
        6.67000
 32
        0.00000
 13
       13.07000
 23
        6.67000
 33
        0.00000
999
ROOM2_SMALL:R2_NORTH_WINDOW
  0
3DFACE
  8
ROOM2_SMALL
 62
143
 10
       10.00000
 20
        6.67000
 30
        1.40000
 11
       10.80000
 21
        6.67000
 31
        1.40000
 12
       10.80000
 22
        6.67000
 32
        2.30000
 13
       10.00000
 23
        6.67000
 33
        2.30000
999
ROOM2_SMALL:R2_FLOOR
  0
3DFACE
  8
ROOM2_SMALL
 62
  8
 10
       13.07000
 20
        6.67000
 30
        0.00000
 11
       13.07000
 21
        3.21000
 31
        0.00000
 12
        9.54000
 22
        3.21000
 32
        0.00000
 13
        9.54000
 23
        6.67000
 33
        0.00000
999
ROOM2_SMALL:R2_ROOF
  0
3DFACE
  8
ROOM2_SMALL
 62
 15
 10
        9.54000
 20
        6.67000
 30
        3.00000
 11
        9.54000
 21
        3.21000
 31
        3.00000
 12
       13.07000
 22
        3.21000
 32
        3.00000
 13
       13.07000
 23
        6.67000
 33
        3.00000
  0
ENDSEC
  0
EOF
